Structure14
     RDKit          3D

  0  0  0  0  0  0  0  0  0  0999 V3000
M  V30 BEGIN CTAB
M  V30 COUNTS 60 64 0 0 1
M  V30 BEGIN ATOM
M  V30 1 C 39.263085 36.071897 61.906029 0
M  V30 2 N 38.291175 36.438300 61.150101 0
M  V30 3 C 37.636192 33.179747 59.261247 0
M  V30 4 C 38.425017 33.163689 57.942942 0
M  V30 5 C 38.389209 32.326327 55.544597 0
M  V30 6 C 39.043933 29.052506 52.937426 0
M  V30 7 C 39.274082 28.238969 50.668256 0
M  V30 8 C 39.841370 30.154511 52.597926 0
M  V30 9 C 37.442792 29.692812 56.498382 0
M  V30 10 C 38.177165 30.641573 57.459154 0
M  V30 11 C 38.609127 27.527396 54.887505 0
M  V30 12 C 38.507616 28.884972 54.314206 0
M  V30 13 C 39.679703 25.969520 56.387373 0
M  V30 14 C 36.669028 36.155153 59.466521 0
M  V30 15 C 37.757415 35.516515 60.295908 0
M  V30 16 C 38.196820 34.223717 60.225279 0
M  V30 17 C 39.309677 33.813278 61.093805 0
M  V30 18 O 39.782472 32.663709 61.040192 0
M  V30 19 N 39.800110 34.813468 61.918228 0
M  V30 20 C 40.857627 34.651095 62.785771 0
M  V30 21 C 41.161555 35.759587 63.491001 0
M  V30 22 S 40.092850 37.106723 63.069423 0
M  V30 23 N 37.895118 32.083438 56.985114 0 CHG=1
M  V30 24 C 37.697765 31.316165 54.612929 0
M  V30 25 C 37.960071 29.878146 55.064925 0
M  V30 26 C 39.673002 27.195958 55.731449 0
M  V30 27 C 38.639302 25.069698 56.184199 0
M  V30 28 C 37.605492 25.368365 55.303792 0
M  V30 29 C 37.591971 26.596728 54.650162 0
M  V30 30 F 38.620139 23.907710 56.866368 0
M  V30 31 C 38.769360 28.093996 51.951768 0
M  V30 32 C 40.026959 29.355053 50.340306 0
M  V30 33 C 40.310745 30.315996 51.299143 0
M  V30 34 F 40.493770 29.501890 49.087615 0
M  V30 35 H 37.634619 32.206274 59.752676 0
M  V30 36 H 36.588115 33.381979 59.043415 0
M  V30 37 H 39.497109 33.001600 58.072072 0
M  V30 38 H 38.248760 34.104596 57.416316 0
M  V30 39 H 39.477461 32.226335 55.539955 0
M  V30 40 H 38.106347 33.346698 55.272201 0
M  V30 41 H 39.087180 27.475750 49.932414 0
M  V30 42 H 40.111929 30.894293 53.337205 0
M  V30 43 H 36.372737 29.917420 56.521659 0
M  V30 44 H 37.535455 28.671798 56.869480 0
M  V30 45 H 39.258566 30.488133 57.472408 0
M  V30 46 H 37.791849 30.520010 58.471065 0
M  V30 47 H 40.472970 25.729130 57.078181 0
M  V30 48 H 36.041181 35.440326 58.944737 0
M  V30 49 H 36.015214 36.767164 60.084402 0
M  V30 50 H 37.118388 36.817913 58.727440 0
M  V30 51 H 41.323118 33.670557 62.835283 0
M  V30 52 H 41.927971 35.883451 64.252152 0
M  V30 53 H 37.994674 31.523144 53.593210 0
M  V30 54 H 36.619599 31.488317 54.616148 0
M  V30 55 H 40.468329 27.902934 55.919207 0
M  V30 56 H 36.804012 24.658928 55.156527 0
M  V30 57 H 36.773852 26.842025 53.985923 0
M  V30 58 H 38.177091 27.215485 52.157001 0
M  V30 59 H 40.905958 31.174558 51.033363 0
M  V30 60 H 36.864034 32.187867 56.962106 0
M  V30 END ATOM
M  V30 BEGIN BOND
M  V30 1 2 2 1
M  V30 2 1 4 3
M  V30 3 2 8 6
M  V30 4 1 10 9
M  V30 5 1 12 6
M  V30 6 1 12 11
M  V30 7 1 15 2
M  V30 8 1 15 14
M  V30 9 1 16 3
M  V30 10 2 16 15
M  V30 11 1 17 16
M  V30 12 2 18 17
M  V30 13 1 19 1
M  V30 14 1 19 17
M  V30 15 1 20 19
M  V30 16 2 21 20
M  V30 17 1 22 1
M  V30 18 1 22 21
M  V30 19 1 23 4
M  V30 20 1 23 5
M  V30 21 1 23 10
M  V30 22 1 24 5
M  V30 23 1 25 9
M  V30 24 2 25 12
M  V30 25 1 25 24
M  V30 26 1 26 11
M  V30 27 2 26 13
M  V30 28 1 27 13
M  V30 29 2 28 27
M  V30 30 2 29 11
M  V30 31 1 29 28
M  V30 32 1 30 27
M  V30 33 1 31 6
M  V30 34 2 31 7
M  V30 35 1 32 7
M  V30 36 1 33 8
M  V30 37 2 33 32
M  V30 38 1 34 32
M  V30 39 1 35 3
M  V30 40 1 36 3
M  V30 41 1 37 4
M  V30 42 1 38 4
M  V30 43 1 39 5
M  V30 44 1 40 5
M  V30 45 1 41 7
M  V30 46 1 42 8
M  V30 47 1 43 9
M  V30 48 1 44 9
M  V30 49 1 45 10
M  V30 50 1 46 10
M  V30 51 1 47 13
M  V30 52 1 48 14
M  V30 53 1 49 14
M  V30 54 1 50 14
M  V30 55 1 51 20
M  V30 56 1 52 21
M  V30 57 1 53 24
M  V30 58 1 54 24
M  V30 59 1 55 26
M  V30 60 1 56 28
M  V30 61 1 57 29
M  V30 62 1 58 31
M  V30 63 1 59 33
M  V30 64 1 60 23
M  V30 END BOND
M  V30 END CTAB
M  END
>  <b_m_subgroup_collapsed>  (1) 
0

>  <s_m_entry_name>  (1) 
Structure14

>  <s_m_subgroup_title>  (1) 
gpcr_5ht2c_2-out

>  <s_m_subgroupid>  (1) 
gpcr_5ht2c_2-out

$$$$
